parallel/peak_load/0pc/TNB_DUMA_VLN.Txt

SYMMETRICAL COMPONENT VOLTAGES BY BUS (for 3-phase buses)

Bus               Mag:   V1 (kV)    p.u.     V2 (kV)   %V2/V1    V0 (kV)    %V0/V1

ppu_duma_33kv        18.89     0.9916  9.248E-009  4.895E-008 1.239E-009 6.56E-009
ppu_duma_11kv        6.165     0.9707  3.206E-009   5.2E-008 1.775E-011 2.88E-010
rpplngi2             6.127     0.9647  3.189E-009  5.205E-008 1.833E-011 2.993E-010
pdtjlnmasjid         6.098     0.9602  3.176E-009  5.208E-008 1.893E-011 3.105E-010
bella                6.079     0.9572  3.167E-009  5.21E-008 1.941E-011 3.192E-010
pstpdgn               6.07     0.9557  3.163E-009  5.211E-008 1.966E-011 3.239E-010
pamdra               6.163     0.9704  3.205E-009   5.2E-008 1.778E-011 2.884E-010
duma4                6.156     0.9694  3.202E-009  5.201E-008 1.893E-011 3.075E-010
plsdra                6.14     0.9668  3.195E-009  5.203E-008 2.597E-011 4.23E-010
ssu_uptwres_ir1      6.134     0.9659  3.192E-009  5.204E-008 2.624E-011 4.278E-010
atria_1              6.133     0.9657  3.192E-009  5.204E-008 1.822E-011 2.97E-010
hawker               6.127     0.9647  3.189E-009  5.204E-008 2.036E-011 3.322E-010
prmte                6.109     0.9619  3.181E-009  5.207E-008 4.01E-011 6.565E-010
prmta                6.101     0.9607  3.177E-009  5.208E-008 4.055E-011 6.647E-010
pmontb               6.098     0.9601  3.176E-009  5.208E-008  4.3E-011 7.052E-010
duma7                6.154     0.9691  3.201E-009  5.201E-008 1.789E-011 2.906E-010
haus                 6.142     0.9672  3.196E-009  5.203E-008 2.083E-011 3.392E-010
duma6                6.112     0.9623  3.182E-009  5.207E-008 3.846E-011 6.294E-010
duma13               6.088     0.9587  3.172E-009  5.21E-008 5.476E-011 8.995E-010
ssu_duma5_im2        6.082     0.9577  3.169E-009  5.21E-008 5.512E-011 9.062E-010
plngi_b              6.158     0.9697  3.203E-009  5.201E-008 1.783E-011 2.895E-010
plngi_d              6.158     0.9696  3.203E-009  5.201E-008 1.784E-011 2.897E-010
pdtlitrak            6.112     0.9624  3.182E-009  5.206E-008 1.863E-011 3.048E-010
duma12               6.091      0.959  3.173E-009  5.209E-008 1.911E-011 3.138E-010
tmngh4               6.074     0.9564  3.165E-009  5.211E-008 2.562E-011 4.217E-010
ssu_tmegah3_ir1      6.067     0.9554  3.162E-009  5.212E-008 2.948E-011 4.859E-010
tmngh2               6.063     0.9547  3.16E-009  5.212E-008 3.186E-011 5.254E-010
sprk9                6.067     0.9553  3.162E-009  5.212E-008 1.972E-011 3.251E-010
bomba                6.062     0.9546  3.16E-009  5.212E-008 2.109E-011 3.479E-010
sprk8                6.051     0.9528  3.155E-009  5.213E-008 2.618E-011 4.326E-010
ssu_uptwres_im2      6.151     0.9685   3.2E-009  5.202E-008 2.024E-011 3.291E-010
maybank              6.143     0.9672  3.196E-009  5.203E-008 2.053E-011 3.342E-010
duma8                6.142      0.967  3.195E-009  5.203E-008 2.101E-011 3.42E-010
ssu_dsarcntr_ir1     6.163     0.9704  3.205E-009   5.2E-008 1.778E-011 2.884E-010
duma9                6.113     0.9625  3.182E-009  5.206E-008 1.861E-011 3.044E-010
duma1                6.092     0.9592  3.173E-009  5.209E-008 1.908E-011 3.133E-010
elite                6.084      0.958  3.169E-009  5.209E-008 1.927E-011 3.167E-010
duma10               6.142     0.9672  3.196E-009  5.203E-008 1.806E-011 2.94E-010
balaipolis           6.142     0.9672  3.196E-009  5.203E-008 1.806E-011 2.94E-010
ppu_duma_vcb1            0          0          0          0         0         0
